/*--------------------------------*- C++ -*----------------------------------*\
  =========                 |
  \\      /  F ield         | OpenFOAM: The Open Source CFD Toolbox
   \\    /   O peration     | Website:  https://openfoam.org
    \\  /    A nd           | Version:  12
     \\/     M anipulation  |
\*---------------------------------------------------------------------------*/
FoamFile
{
    format      ascii;
    class       dictionary;
    location    "system";
    object      fvSchemes;
}
// * * * * * * * * * * * * * * * * * * * * * * * * * * * * * * * * * * * * * //

ddtSchemes
{
    default         Euler;
}

gradSchemes
{
    default         Gauss linear;
}

divSchemes
{
    default         none;
    
    // div(phi,U)      Gauss upwind;
    // div(phid,p)     Gauss upwind;
    // div(phi,K)      Gauss upwind;
    // div(phi,Yi_h)   Gauss upwind;

    div(phi,U)      Gauss linearUpwindV grad(U); // limitedLinearV 1;
    div(phid,p)     Gauss limitedLinear 1;
    div(phi,K)      Gauss linear;
    div(phi,Yi_h)   Gauss multivariateSelection
    {
        air             limitedLinear01 1;
        H2O             limitedLinear01 1;
        h               limitedLinear 1;
    };
    
    div(phi,k)          Gauss upwind;
    div(phi,epsilon)    Gauss upwind;
    div(phi,omega)      Gauss upwind;

    div(((rho*nuEff)*dev2(T(grad(U))))) Gauss linear;

    div(Ji,Ii_h)    Gauss upwind;
}

laplacianSchemes
{
    default         Gauss linear corrected;
}

interpolationSchemes
{
    default         linear;
}

snGradSchemes
{
    default         corrected;
}

// wallDist
// {
//     method meshWave;
// }


// ************************************************************************* //
