/*--------------------------------*- C++ -*----------------------------------*\
  =========                 |
  \\      /  F ield         | OpenFOAM: The Open Source CFD Toolbox
   \\    /   O peration     | Website:  https://openfoam.org
    \\  /    A nd           | Version:  13
     \\/     M anipulation  |
\*---------------------------------------------------------------------------*/
FoamFile
{
    format      ascii;
    class       dictionary;
    object      blockMeshDict;
}
// * * * * * * * * * * * * * * * * * * * * * * * * * * * * * * * * * * * * * //

convertToMeters 1;

xMin  -0.04;
xMax   0.04;

yMin  -0.04;
yMax   0.04;

zMin  -0.01;
zMax   1.15;

xcells      30;  // 10
zcells      250; // 200

vertices
(
    ($xMin $yMin $zMin)     //0
    ($xMax $yMin $zMin)     //1
    ($xMax $yMax $zMin)     //2
    ($xMin $yMax $zMin)     //3
    ($xMin $yMin $zMax)     //4
    ($xMax $yMin $zMax)     //5
    ($xMax $yMax $zMax)     //6
    ($xMin $yMax $zMax)     //7
);

blocks
(
    hex (0 1 2 3 4 5 6 7) ($xcells $xcells $zcells) simpleGrading (1 1 1)
);

edges
(
);

boundary
(
    allBoundary
    {
        type patch;
        faces
        (
            (0 3 2 1)
            (4 5 6 7)
            (0 4 7 3)
            (3 7 6 2)
            (2 6 5 1)
            (1 5 4 0)
        );
    }
);

mergePatchPairs
(
);

// ************************************************************************* //
