/*--------------------------------*- C++ -*----------------------------------*\
  =========                 |
  \\      /  F ield         | OpenFOAM: The Open Source CFD Toolbox
   \\    /   O peration     | Website:  https://openfoam.org
    \\  /    A nd           | Version:  13
     \\/     M anipulation  |
\*---------------------------------------------------------------------------*/
FoamFile
{
    format      ascii;
    class       dictionary;
    object      surfaceFeaturesDict;
}
// * * * * * * * * * * * * * * * * * * * * * * * * * * * * * * * * * * * * * //

surfaces ("tube_grib_scaled_out.stl");

extractionMethod    extractFromSurface;

// Identify a feature when angle between faces < includedAngle
includedAngle   150;

subsetFeatures
{
    // Keep nonManifold edges (edges with >2 connected faces)
    nonManifoldEdges       yes;

    // Keep open edges (edges with 1 connected face)
    openEdges       yes;
}

// Write features to obj format for postprocessing
writeObj                yes;
// ************************************************************************* //
