/*--------------------------------*- C++ -*----------------------------------*\
  =========                 |
  \\      /  F ield         | OpenFOAM: The Open Source CFD Toolbox
   \\    /   O peration     | Website:  https://openfoam.org
    \\  /    A nd           | Version:  12
     \\/     M anipulation  |
\*---------------------------------------------------------------------------*/
FoamFile
{
    format      ascii;
    class       dictionary;
    location    "constant";
    object      thermophysicalTransport;
}
// * * * * * * * * * * * * * * * * * * * * * * * * * * * * * * * * * * * * * //

laminar
{
    model           unityLewisFourier;      // default
    
    // model           FickianFourier;
    // mixtureDiffusionCoefficients yes;

    // Dm // [m^2/s]
    // {
    //     H2O 0.0004026012357175048;      // need to be checked!
    //     air 0.0004026012357175048;      // need to be checked!
    // }
}

// ************************************************************************* //
