/*--------------------------------*- C++ -*----------------------------------*\
  =========                 |
  \\      /  F ield         | OpenFOAM: The Open Source CFD Toolbox
   \\    /   O peration     | Website:  https://openfoam.org
    \\  /    A nd           | Version:  12
     \\/     M anipulation  |
\*---------------------------------------------------------------------------*/
FoamFile
{
    format      ascii;
    class       volScalarField;
    location    "0";
    object      air;
}
// * * * * * * * * * * * * * * * * * * * * * * * * * * * * * * * * * * * * * //

dimensions      [];

internalField   uniform 0.5;//0.99;

boundaryField
{
    inlet
    {
        type            fixedValue;
        value           uniform 0.5;//0.99;
    }

    outlet
    {
        // type            inletOutlet;
        // inletValue      uniform 1.;

        type            zeroGradient;
    }

    sideWalls
    {
        type            zeroGradient;
    }
}


// internalField   uniform 1.;

// boundaryField
// {
//     inlet
//     {
//         type            fixedValue;
//         value           uniform 1.;
//     }

//     outlet
//     {
//         type            inletOutlet;
//         inletValue      uniform 1.;
//     }

//     sideWalls
//     {
//         type            zeroGradient;
//     }
// }


// ************************************************************************* //
