! generator: yaml2ck
! cantera-version: 3.2.0
! date: Mon, 02 Mar 2026 21:02:00 +0300
! input-files: ['my_mechanism_h2air.yaml']
!
! nits(length='cm', time='s', quantity='mol', act_energy='cal/mol')

ELEM
N H O C
END
SPECIES
H2  H  O2  OH  O  H2O  HO2  H2O2  N2
END
REACTIONS CAL/MOLE
H + O2 <=> O + OH        3.520000000000001e+16 -0.7 17069.79
H2 + O <=> H + OH        50600.00000000001 2.67 6290.63
H2 + OH <=> H + H2O      1170000000.0000002 1.3 3635.28
H2O + O <=> 2 OH         7.6000000000000005 3.84 12779.64
2 H + M <=> H2 + M       1.3000000000000003e+18 -1.0 0.0
H2/2.500E+00/ H2O/1.200E+01/
H + OH + M <=> H2O + M   4.000000000000001e+22 -2.0 0.0
H2/2.500E+00/ H2O/1.200E+01/
2 O + M <=> O2 + M       6170000000000001.0 -0.5 0.0
H2/2.500E+00/ H2O/1.200E+01/
H + O + M <=> OH + M     4.710000000000001e+18 -1.0 0.0
H2/2.500E+00/ H2O/1.200E+01/
O + OH + M <=> HO2 + M   8000000000000002.0 0.0 0.0
H2/2.500E+00/ H2O/1.200E+01/
H + O2 (+M) <=> HO2 (+M) 4650000000000.001 0.44 0.0
LOW /5.750000000000001e+19 -1.4 0.0/
TROE /0.5 1E-30 1E+30/
H2/2.500E+00/ H2O/1.600E+01/
H + HO2 <=> 2 OH         70800000000000.02 0.0 295.0
H + HO2 <=> H2 + O2      16600000000000.002 0.0 822.9
H + HO2 <=> H2O + O      31000000000000.004 0.0 1720.84
HO2 + O <=> O2 + OH      20000000000000.004 0.0 0.0
HO2 + OH <=> H2O + O2    28900000000000.004 0.0 -497.13
2 OH (+M) <=> H2O2 (+M)  74000000000000.02 -0.37 0.0
LOW /2.3000000000000005e+18 -0.9 -1701.72/
TROE /0.735 94 1756 5182/
H2/2.000E+00/ H2O/6.000E+00/
2 HO2 <=> H2O2 + O2      3020000000000.0005 0.0 1386.23
H + H2O2 <=> H2 + HO2    23000000000000.004 0.0 7950.05
H + H2O2 <=> H2O + OH    10000000000000.002 0.0 3585.09
H2O2 + OH <=> H2O + HO2  7080000000000.001 0.0 1434.03
H2O2 + O <=> HO2 + OH    9630000.0 2.0 3991.4
END
