ELEMENTS
H O AR
END
SPECIES
H2  O2  H  O  OH  HO2  H2O2  H2O  AR
END
REACTIONS CAL/MOLE
H2 + O2 <=> 2 OH         1.7e+13   0.0 47780.0
H2 + OH <=> H + H2O      1.17e+9   1.3 3626.0
H + O2 <=> O + OH        5.13e+16 -0.8 16507.0
H2 + O <=> H + OH        1.8e+10   1.0 8826.0
H + O2 + M <=> HO2 + M   2.1e+18  -1.0 0.0
H2/3.300E+00/ H2O/2.100E+01/ O2/0.000E+00/
H + O2 + O2 <=> HO2 + O2 6.7e+19  -1.4 0.0
HO2 + OH <=> H2O + O2    5.0e+13   0.0 1000.0
H + HO2 <=> 2 OH         2.5e+14   0.0 1900.0
HO2 + O <=> O2 + OH      4.8e+13   0.0 1000.0
2 OH <=> H2O + O         6.0e+8    1.3 0.0
H2 + M <=> H + H + M     2.23e+12  0.5 92600.0
H/2.000E+00/ H2/3.000E+00/ H2O/6.000E+00/
O2 + M <=> O + O + M     1.85e+11  0.5 95560.0
H + OH + M <=> H2O + M   7.5e+23  -2.6 0.0
H2O/2.000E+01/
H + HO2 <=> H2 + O2      2.5e+13   0.0 700
HO2 + HO2 <=> H2O2 + O2  2.0e+12   0.0 0.0
H2O2 + M <=> OH + OH + M 1.3e+17   0.0 45500.0
H + H2O2 <=> H2 + HO2    1.6e+12   0.0 3800.0
H2O2 + OH <=> H2O + HO2  1.0e+13   0.0 1800.0
END
