/*--------------------------------*- C++ -*----------------------------------*\
  =========                 |
  \\      /  F ield         | OpenFOAM: The Open Source CFD Toolbox
   \\    /   O peration     | Website:  https://openfoam.org
    \\  /    A nd           | Version:  13
     \\/     M anipulation  |
\*---------------------------------------------------------------------------*/
FoamFile
{
    version     2.0;
    format      ascii;
    class       dictionary;
    object      transportProperties;
}
// * * * * * * * * * * * * * * * * * * * * * * * * * * * * * * * * * * * * * //

"H2"
{
    transport
    {
        As 1.67e-06;
        Ts 97.;
    }
}

"H"
{
    transport
    {
        As 1.34e-06;
        Ts 100.;
    }
}

"O2"
{
    transport
    {
        As 2.27e-06;
        Ts 139.;
    }
}

"OH"
{
    transport
    {
        As 2.70e-06;
        Ts 230.;
    }
}

"O"
{
    transport
    {
        As 3.76e-06;
        Ts 85.;
    }
}

"H2O"
{
    transport
    {
        As 2.67e-06;
        Ts 1700.;
    }
}

"HO2"
{
    transport
    {
        As 3.50e-06;
        Ts 100.;
    }
}

"H2O2"
{
    transport
    {
        As 3.50e-06;
        Ts 500.;
    }
}

"N2"
{
    transport
    {
        As 2.27e-06;
        Ts 111.;
    }
}

// ************************************************************************* //
