/*--------------------------------*- C++ -*----------------------------------*\
  =========                 |
  \\      /  F ield         | OpenFOAM: The Open Source CFD Toolbox
   \\    /   O peration     | Website:  https://openfoam.org
    \\  /    A nd           | Version:  12
     \\/     M anipulation  |
\*---------------------------------------------------------------------------*/
FoamFile
{
    format      ascii;
    class       volScalarField;
    location    "0";
    object      alphat;
}
// * * * * * * * * * * * * * * * * * * * * * * * * * * * * * * * * * * * * * //

dimensions      [1 -1 -1 0 0 0 0];

internalField   uniform 0;

boundaryField
{
    inlet
    {
        type            fixedValue;
        value           uniform 0;  // No turbulent diffusivity in laminar flow
    }
   
    outlet
    {
        type            inletOutlet;  // Or zeroGradient if no backflow
        inletValue      uniform 0;    // Small value (e.g., 1e-10) if backflow occurs
        value           uniform 0;
    }
   
    pipe
    {
        type            compressible::alphatWallFunction;
        Prt             0.85;
        value           uniform 0;
    }
}

// internalField   uniform 1e-3;

// boundaryField
// {    
//     pipe
//     {
//         type            compressible::alphatWallFunction;
//         value           $internalField;
//     }

//     inlet
//     {
//         type            calculated;
//         value           $internalField;
//     }

//     outlet
//     {
//         type            calculated;
//         value           $internalField;
//     }
// }


// ************************************************************************* //
