/*--------------------------------*- C++ -*----------------------------------*\
  =========                 |
  \\      /  F ield         | OpenFOAM: The Open Source CFD Toolbox
   \\    /   O peration     | Website:  https://openfoam.org
    \\  /    A nd           | Version:  13
     \\/     M anipulation  |
\*---------------------------------------------------------------------------*/
FoamFile
{
    format      ascii;
    class       extendedFeatureEdgeMesh;
    location    "constant/extendedFeatureEdgeMesh";
    object      surfacemesh.extendedFeatureEdgeMesh;
}
// * * * * * * * * * * * * * * * * * * * * * * * * * * * * * * * * * * * * * //

// points

424
(
(0.00812487 -0.0058298 -0.01)
(0.00829406 -0.00558647 -0.01)
(0.00845596 -0.00533823 -0.01)
(0.00829406 -0.00558647 0.01)
(0.00812487 -0.0058298 0.01)
(-0.00915146 0.00403123 -0.01)
(-0.0092669 0.00375828 -0.01)
(-0.0093742 0.00348202 -0.01)
(-0.0092669 0.00375828 0.01)
(-0.00915146 0.00403123 0.01)
(0.00845596 -0.00533823 0.01)
(-0.0093742 0.00348202 0.01)
(0.00861044 -0.00508531 -0.01)
(0.00875735 -0.00482792 -0.01)
(0.01 -2.44921e-18 -0.01)
(0.00999561 0.000296333 -0.01)
(0.00861044 -0.00508531 0.01)
(-0.00947326 0.0032027 0.01)
(0.00999561 0.000296333 0.01)
(0.01 -2.44921e-18 0.01)
(-0.00947326 0.0032027 -0.01)
(0.00875735 -0.00482792 0.01)
(0.00998244 0.000592406 -0.01)
(0.0099605 0.000887959 -0.01)
(-0.00956401 0.00292057 -0.01)
(0.00998244 0.000592406 0.01)
(-0.00956401 0.00292057 0.01)
(0.00889657 -0.00456629 -0.01)
(0.00902798 -0.00430065 -0.01)
(0.00889657 -0.00456629 0.01)
(0.0099605 0.000887959 0.01)
(-0.00964636 0.00263587 -0.01)
(-0.00972023 0.00234886 -0.01)
(0.00902798 -0.00430065 0.01)
(-0.00964636 0.00263587 0.01)
(0.00992981 0.00118273 -0.01)
(0.00915146 -0.00403123 -0.01)
(0.00992981 0.00118273 0.01)
(0.0092669 -0.00375828 -0.01)
(-0.00972023 0.00234886 0.01)
(0.00915146 -0.00403123 0.01)
(0.0098904 0.00147647 -0.01)
(0.00984231 0.0017689 -0.01)
(-0.00978557 0.00205979 -0.01)
(0.0098904 0.00147647 0.01)
(0.0092669 -0.00375828 0.01)
(-0.00978557 0.00205979 0.01)
(0.0093742 -0.00348202 -0.01)
(0.00947326 -0.0032027 -0.01)
(0.00984231 0.0017689 0.01)
(0.0093742 -0.00348202 0.01)
(-0.00984231 0.0017689 -0.01)
(-0.00984231 0.0017689 0.01)
(0.00947326 -0.0032027 0.01)
(0.00978557 0.00205979 -0.01)
(0.00978557 0.00205979 0.01)
(-0.0098904 0.00147647 -0.01)
(-0.0098904 0.00147647 0.01)
(0.00956401 -0.00292057 -0.01)
(0.00964636 -0.00263587 -0.01)
(0.00972023 0.00234886 -0.01)
(0.00956401 -0.00292057 0.01)
(0.00972023 0.00234886 0.01)
(-0.00992981 0.00118273 -0.01)
(-0.0099605 0.000887959 -0.01)
(-0.00992981 0.00118273 0.01)
(0.00964636 -0.00263587 0.01)
(0.00964636 0.00263587 -0.01)
(0.00964636 0.00263587 0.01)
(0.00972023 -0.00234886 -0.01)
(-0.0099605 0.000887959 0.01)
(0.00978557 -0.00205979 -0.01)
(0.00972023 -0.00234886 0.01)
(0.00956401 0.00292057 -0.01)
(0.00947326 0.0032027 -0.01)
(-0.00998244 0.000592406 -0.01)
(0.00956401 0.00292057 0.01)
(-0.00998244 0.000592406 0.01)
(0.00978557 -0.00205979 0.01)
(-0.00999561 0.000296333 -0.01)
(0.00947326 0.0032027 0.01)
(0.00984231 -0.0017689 -0.01)
(0.0098904 -0.00147647 -0.01)
(-0.00999561 0.000296333 0.01)
(0.00984231 -0.0017689 0.01)
(0.0093742 0.00348202 -0.01)
(-0.01 -2.09799e-17 -0.01)
(0.0093742 0.00348202 0.01)
(-0.01 -2.09799e-17 0.01)
(0.0098904 -0.00147647 0.01)
(0.0092669 0.00375828 -0.01)
(0.00992981 -0.00118273 -0.01)
(-0.00999561 -0.000296333 -0.01)
(0.00915146 0.00403123 -0.01)
(0.0099605 -0.000887959 -0.01)
(0.0092669 0.00375828 0.01)
(-0.00999561 -0.000296333 0.01)
(0.00992981 -0.00118273 0.01)
(-0.00998244 -0.000592406 -0.01)
(0.00902798 0.00430065 -0.01)
(0.00915146 0.00403123 0.01)
(0.0099605 -0.000887959 0.01)
(-0.00998244 -0.000592406 0.01)
(0.00998244 -0.000592406 -0.01)
(0.00999561 -0.000296333 -0.01)
(-0.0099605 -0.000887959 -0.01)
(-0.00992981 -0.00118273 -0.01)
(0.00902798 0.00430065 0.01)
(0.00998244 -0.000592406 0.01)
(-0.0099605 -0.000887959 0.01)
(0.00999561 -0.000296333 0.01)
(0.00889657 0.00456629 -0.01)
(-0.00992981 -0.00118273 0.01)
(0.00889657 0.00456629 0.01)
(-0.0098904 -0.00147647 -0.01)
(0.00875735 0.00482792 -0.01)
(-0.0098904 -0.00147647 0.01)
(0.00875735 0.00482792 0.01)
(-0.00984231 -0.0017689 -0.01)
(-0.00984231 -0.0017689 0.01)
(0.00861044 0.00508531 -0.01)
(0.00861044 0.00508531 0.01)
(-0.00978557 -0.00205979 -0.01)
(-0.00972023 -0.00234886 -0.01)
(-0.00978557 -0.00205979 0.01)
(0.00845596 0.00533823 -0.01)
(0.00829406 0.00558647 -0.01)
(0.00845596 0.00533823 0.01)
(-0.00972023 -0.00234886 0.01)
(0.00829406 0.00558647 0.01)
(-0.00964636 -0.00263587 -0.01)
(-0.00956401 -0.00292057 -0.01)
(-0.00964636 -0.00263587 0.01)
(0.00812487 0.0058298 0.01)
(0.00812487 0.0058298 -0.01)
(-0.00956401 -0.00292057 0.01)
(0.00794854 0.006068 0.01)
(0.00794854 0.006068 -0.01)
(0.00776524 0.00630088 -0.01)
(-0.00947326 -0.0032027 -0.01)
(-0.0093742 -0.00348202 -0.01)
(-0.00947326 -0.0032027 0.01)
(0.00776524 0.00630088 0.01)
(-0.0093742 -0.00348202 0.01)
(0.00757511 0.00652822 0.01)
(0.00757511 0.00652822 -0.01)
(-0.0092669 -0.00375828 -0.01)
(-0.0092669 -0.00375828 0.01)
(0.00737833 0.00674983 0.01)
(0.00737833 0.00674983 -0.01)
(0.00717507 0.00696551 -0.01)
(-0.00915146 -0.00403123 0.01)
(-0.00915146 -0.00403123 -0.01)
(-0.00902798 -0.00430065 -0.01)
(0.00717507 0.00696551 0.01)
(-0.00902798 -0.00430065 0.01)
(0.00696551 0.00717507 0.01)
(0.00696551 0.00717507 -0.01)
(-0.00889657 -0.00456629 0.01)
(-0.00889657 -0.00456629 -0.01)
(0.00674983 0.00737833 0.01)
(0.00674983 0.00737833 -0.01)
(-0.00875735 -0.00482792 0.01)
(-0.00875735 -0.00482792 -0.01)
(-0.00861044 -0.00508531 -0.01)
(0.00652822 0.00757511 -0.01)
(0.00652822 0.00757511 0.01)
(-0.00861044 -0.00508531 0.01)
(0.00630088 0.00776524 -0.01)
(0.006068 0.00794854 -0.01)
(0.00630088 0.00776524 0.01)
(-0.00845596 -0.00533823 0.01)
(-0.00845596 -0.00533823 -0.01)
(0.006068 0.00794854 0.01)
(-0.00829406 -0.00558647 0.01)
(-0.00829406 -0.00558647 -0.01)
(0.0058298 0.00812487 -0.01)
(0.0058298 0.00812487 0.01)
(-0.00812487 -0.0058298 0.01)
(-0.00812487 -0.0058298 -0.01)
(-0.00794854 -0.006068 -0.01)
(0.00558647 0.00829406 -0.01)
(0.00533823 0.00845596 -0.01)
(0.00558647 0.00829406 0.01)
(-0.00794854 -0.006068 0.01)
(0.00533823 0.00845596 0.01)
(-0.00776524 -0.00630088 -0.01)
(-0.00776524 -0.00630088 0.01)
(-0.00757511 -0.00652822 -0.01)
(0.00508531 0.00861044 -0.01)
(0.00508531 0.00861044 0.01)
(-0.00757511 -0.00652822 0.01)
(0.00482792 0.00875735 -0.01)
(0.00482792 0.00875735 0.01)
(-0.00737833 -0.00674983 -0.01)
(-0.00737833 -0.00674983 0.01)
(0.00456629 0.00889657 -0.01)
(0.00430065 0.00902798 -0.01)
(0.00456629 0.00889657 0.01)
(-0.00717507 -0.00696551 -0.01)
(-0.00696551 -0.00717507 -0.01)
(-0.00717507 -0.00696551 0.01)
(0.00430065 0.00902798 0.01)
(-0.00696551 -0.00717507 0.01)
(0.00403123 0.00915146 -0.01)
(0.00403123 0.00915146 0.01)
(-0.00674983 -0.00737833 -0.01)
(-0.00674983 -0.00737833 0.01)
(0.00375828 0.0092669 -0.01)
(0.00375828 0.0092669 0.01)
(-0.00652822 -0.00757511 -0.01)
(-0.00630088 -0.00776524 -0.01)
(-0.00652822 -0.00757511 0.01)
(0.00348202 0.0093742 -0.01)
(0.00348202 0.0093742 0.01)
(-0.00630088 -0.00776524 0.01)
(0.0032027 0.00947326 -0.01)
(0.00292057 0.00956401 -0.01)
(0.0032027 0.00947326 0.01)
(-0.006068 -0.00794854 -0.01)
(-0.0058298 -0.00812487 -0.01)
(-0.006068 -0.00794854 0.01)
(0.00292057 0.00956401 0.01)
(-0.0058298 -0.00812487 0.01)
(0.00263587 0.00964636 -0.01)
(-0.00558647 -0.00829406 -0.01)
(0.00263587 0.00964636 0.01)
(-0.00533823 -0.00845596 -0.01)
(-0.00558647 -0.00829406 0.01)
(0.00234886 0.00972023 0.01)
(0.00234886 0.00972023 -0.01)
(0.00205979 0.00978557 -0.01)
(-0.00533823 -0.00845596 0.01)
(0.00205979 0.00978557 0.01)
(-0.00508531 -0.00861044 -0.01)
(-0.00482792 -0.00875735 -0.01)
(-0.00508531 -0.00861044 0.01)
(0.0017689 0.00984231 0.01)
(0.0017689 0.00984231 -0.01)
(-0.00482792 -0.00875735 0.01)
(0.00147647 0.0098904 0.01)
(0.00147647 0.0098904 -0.01)
(-0.00456629 -0.00889657 -0.01)
(-0.00430065 -0.00902798 -0.01)
(-0.00456629 -0.00889657 0.01)
(0.00118273 0.00992981 0.01)
(0.00118273 0.00992981 -0.01)
(0.000887959 0.0099605 -0.01)
(-0.00430065 -0.00902798 0.01)
(0.000887959 0.0099605 0.01)
(-0.00403123 -0.00915146 0.01)
(-0.00403123 -0.00915146 -0.01)
(-0.00375828 -0.0092669 -0.01)
(0.000592406 0.00998244 0.01)
(-0.00375828 -0.0092669 0.01)
(0.000592406 0.00998244 -0.01)
(0.000296333 0.00999561 0.01)
(-0.00348202 -0.0093742 0.01)
(0.000296333 0.00999561 -0.01)
(-0.00348202 -0.0093742 -0.01)
(-0.0032027 -0.00947326 -0.01)
(9.49409e-18 0.01 0.01)
(-0.0032027 -0.00947326 0.01)
(9.49409e-18 0.01 -0.01)
(-0.000296333 0.00999561 0.01)
(-0.00292057 -0.00956401 0.01)
(-0.000296333 0.00999561 -0.01)
(-0.000592406 0.00998244 -0.01)
(-0.00292057 -0.00956401 -0.01)
(-0.00263587 -0.00964636 -0.01)
(-0.000592406 0.00998244 0.01)
(-0.00263587 -0.00964636 0.01)
(-0.000887959 0.0099605 0.01)
(-0.00234886 -0.00972023 0.01)
(-0.000887959 0.0099605 -0.01)
(-0.00234886 -0.00972023 -0.01)
(-0.00205979 -0.00978557 -0.01)
(-0.00118273 0.00992981 0.01)
(-0.00118273 0.00992981 -0.01)
(-0.00205979 -0.00978557 0.01)
(-0.00147647 0.0098904 0.01)
(-0.0017689 -0.00984231 0.01)
(-0.00147647 0.0098904 -0.01)
(-0.0017689 -0.00984231 -0.01)
(-0.00147647 -0.0098904 -0.01)
(-0.0017689 0.00984231 0.01)
(-0.00147647 -0.0098904 0.01)
(-0.0017689 0.00984231 -0.01)
(-0.00205979 0.00978557 0.01)
(-0.00118273 -0.00992981 0.01)
(-0.00118273 -0.00992981 -0.01)
(-0.00205979 0.00978557 -0.01)
(-0.000887959 -0.0099605 -0.01)
(-0.00234886 0.00972023 0.01)
(-0.000887959 -0.0099605 0.01)
(-0.00234886 0.00972023 -0.01)
(-0.00263587 0.00964636 -0.01)
(-0.000592406 -0.00998244 0.01)
(-0.000592406 -0.00998244 -0.01)
(-0.00263587 0.00964636 0.01)
(-0.000296333 -0.00999561 -0.01)
(-0.000296333 -0.00999561 0.01)
(-0.00292057 0.00956401 -0.01)
(-0.00292057 0.00956401 0.01)
(1.59267e-17 -0.01 0.01)
(1.59267e-17 -0.01 -0.01)
(-0.0032027 0.00947326 -0.01)
(-0.0032027 0.00947326 0.01)
(0.000296333 -0.00999561 0.01)
(0.000296333 -0.00999561 -0.01)
(0.000592406 -0.00998244 -0.01)
(-0.00348202 0.0093742 -0.01)
(-0.00348202 0.0093742 0.01)
(0.000592406 -0.00998244 0.01)
(-0.00375828 0.0092669 -0.01)
(-0.00403123 0.00915146 -0.01)
(-0.00375828 0.0092669 0.01)
(0.000887959 -0.0099605 0.01)
(0.000887959 -0.0099605 -0.01)
(0.00118273 -0.00992981 -0.01)
(-0.00403123 0.00915146 0.01)
(0.00118273 -0.00992981 0.01)
(-0.00430065 0.00902798 -0.01)
(0.00147647 -0.0098904 -0.01)
(0.0017689 -0.00984231 -0.01)
(0.00147647 -0.0098904 0.01)
(-0.00430065 0.00902798 0.01)
(-0.00456629 0.00889657 0.01)
(-0.00456629 0.00889657 -0.01)
(0.0017689 -0.00984231 0.01)
(0.00205979 -0.00978557 -0.01)
(0.00234886 -0.00972023 -0.01)
(0.00205979 -0.00978557 0.01)
(-0.00482792 0.00875735 0.01)
(-0.00482792 0.00875735 -0.01)
(-0.00508531 0.00861044 -0.01)
(0.00234886 -0.00972023 0.01)
(-0.00508531 0.00861044 0.01)
(0.00263587 -0.00964636 -0.01)
(0.00292057 -0.00956401 -0.01)
(0.00263587 -0.00964636 0.01)
(-0.00533823 0.00845596 0.01)
(-0.00533823 0.00845596 -0.01)
(0.00292057 -0.00956401 0.01)
(-0.00558647 0.00829406 0.01)
(-0.00558647 0.00829406 -0.01)
(0.0032027 -0.00947326 0.01)
(0.0032027 -0.00947326 -0.01)
(0.00348202 -0.0093742 -0.01)
(-0.0058298 0.00812487 0.01)
(-0.0058298 0.00812487 -0.01)
(0.00348202 -0.0093742 0.01)
(0.00375828 -0.0092669 0.01)
(-0.006068 0.00794854 0.01)
(-0.006068 0.00794854 -0.01)
(0.00375828 -0.0092669 -0.01)
(0.00403123 -0.00915146 -0.01)
(0.00403123 -0.00915146 0.01)
(-0.00630088 0.00776524 0.01)
(-0.00630088 0.00776524 -0.01)
(0.00430065 -0.00902798 0.01)
(-0.00652822 0.00757511 0.01)
(0.00430065 -0.00902798 -0.01)
(0.00456629 -0.00889657 -0.01)
(-0.00652822 0.00757511 -0.01)
(-0.00674983 0.00737833 -0.01)
(0.00456629 -0.00889657 0.01)
(-0.00674983 0.00737833 0.01)
(0.00482792 -0.00875735 0.01)
(0.00482792 -0.00875735 -0.01)
(-0.00696551 0.00717507 0.01)
(0.00508531 -0.00861044 -0.01)
(-0.00696551 0.00717507 -0.01)
(0.00508531 -0.00861044 0.01)
(-0.00717507 0.00696551 0.01)
(-0.00717507 0.00696551 -0.01)
(0.00533823 -0.00845596 0.01)
(0.00533823 -0.00845596 -0.01)
(0.00558647 -0.00829406 -0.01)
(-0.00737833 0.00674983 0.01)
(-0.00737833 0.00674983 -0.01)
(-0.00757511 0.00652822 -0.01)
(0.00558647 -0.00829406 0.01)
(-0.00757511 0.00652822 0.01)
(0.0058298 -0.00812487 0.01)
(0.0058298 -0.00812487 -0.01)
(0.006068 -0.00794854 -0.01)
(-0.00776524 0.00630088 0.01)
(0.006068 -0.00794854 0.01)
(-0.00776524 0.00630088 -0.01)
(0.00630088 -0.00776524 0.01)
(-0.00794854 0.006068 0.01)
(0.00630088 -0.00776524 -0.01)
(-0.00794854 0.006068 -0.01)
(0.00652822 -0.00757511 -0.01)
(0.00652822 -0.00757511 0.01)
(-0.00812487 0.0058298 0.01)
(-0.00812487 0.0058298 -0.01)
(0.00674983 -0.00737833 0.01)
(0.00674983 -0.00737833 -0.01)
(0.00696551 -0.00717507 -0.01)
(-0.00829406 0.00558647 0.01)
(-0.00829406 0.00558647 -0.01)
(-0.00845596 0.00533823 -0.01)
(0.00696551 -0.00717507 0.01)
(-0.00845596 0.00533823 0.01)
(0.00717507 -0.00696551 0.01)
(0.00717507 -0.00696551 -0.01)
(0.00737833 -0.00674983 -0.01)
(-0.00861044 0.00508531 0.01)
(-0.00861044 0.00508531 -0.01)
(0.00737833 -0.00674983 0.01)
(0.00757511 -0.00652822 0.01)
(-0.00875735 0.00482792 0.01)
(-0.00875735 0.00482792 -0.01)
(0.00757511 -0.00652822 -0.01)
(0.00776524 -0.00630088 -0.01)
(-0.00889657 0.00456629 -0.01)
(-0.00889657 0.00456629 0.01)
(0.00776524 -0.00630088 0.01)
(0.00794854 -0.006068 -0.01)
(-0.00902798 0.00430065 -0.01)
(0.00794854 -0.006068 0.01)
(-0.00902798 0.00430065 0.01)
)

// edges

424
(
(0 1)
(1 2)
(3 4)
(5 6)
(6 7)
(8 9)
(10 3)
(11 8)
(2 12)
(12 13)
(14 15)
(16 10)
(17 11)
(18 19)
(7 20)
(21 16)
(15 22)
(22 23)
(20 24)
(25 18)
(26 17)
(13 27)
(27 28)
(29 21)
(30 25)
(24 31)
(31 32)
(33 29)
(34 26)
(23 35)
(28 36)
(37 30)
(36 38)
(39 34)
(40 33)
(35 41)
(41 42)
(32 43)
(44 37)
(45 40)
(46 39)
(38 47)
(47 48)
(49 44)
(50 45)
(43 51)
(52 46)
(53 50)
(42 54)
(55 49)
(51 56)
(57 52)
(48 58)
(58 59)
(54 60)
(61 53)
(62 55)
(56 63)
(63 64)
(65 57)
(66 61)
(60 67)
(68 62)
(59 69)
(70 65)
(69 71)
(72 66)
(67 73)
(73 74)
(64 75)
(76 68)
(77 70)
(78 72)
(75 79)
(80 76)
(71 81)
(81 82)
(83 77)
(84 78)
(74 85)
(79 86)
(87 80)
(88 83)
(89 84)
(85 90)
(82 91)
(86 92)
(90 93)
(91 94)
(95 87)
(96 88)
(97 89)
(92 98)
(93 99)
(100 95)
(101 97)
(102 96)
(94 103)
(103 104)
(98 105)
(105 106)
(107 100)
(108 101)
(109 102)
(110 108)
(99 111)
(104 14)
(112 109)
(113 107)
(19 110)
(106 114)
(111 115)
(116 112)
(117 113)
(114 118)
(119 116)
(115 120)
(121 117)
(118 122)
(122 123)
(124 119)
(120 125)
(125 126)
(127 121)
(128 124)
(129 127)
(123 130)
(130 131)
(132 128)
(133 129)
(126 134)
(135 132)
(136 133)
(134 137)
(137 138)
(131 139)
(139 140)
(141 135)
(142 136)
(143 141)
(144 142)
(138 145)
(140 146)
(147 143)
(148 144)
(145 149)
(149 150)
(151 147)
(146 152)
(152 153)
(154 148)
(155 151)
(156 154)
(150 157)
(158 155)
(153 159)
(160 156)
(157 161)
(162 158)
(159 163)
(163 164)
(161 165)
(166 160)
(167 162)
(165 168)
(168 169)
(170 166)
(171 167)
(164 172)
(173 170)
(174 171)
(172 175)
(169 176)
(177 173)
(178 174)
(175 179)
(179 180)
(176 181)
(181 182)
(183 177)
(184 178)
(185 183)
(180 186)
(187 184)
(186 188)
(182 189)
(190 185)
(191 187)
(189 192)
(193 190)
(188 194)
(195 191)
(192 196)
(196 197)
(198 193)
(194 199)
(199 200)
(201 195)
(202 198)
(203 201)
(197 204)
(205 202)
(200 206)
(207 203)
(204 208)
(209 205)
(206 210)
(210 211)
(212 207)
(208 213)
(214 209)
(215 212)
(213 216)
(216 217)
(218 214)
(211 219)
(219 220)
(221 215)
(222 218)
(223 221)
(217 224)
(220 225)
(226 222)
(225 227)
(228 223)
(229 226)
(224 230)
(230 231)
(232 228)
(233 229)
(227 234)
(234 235)
(236 232)
(237 233)
(231 238)
(239 236)
(240 237)
(238 241)
(235 242)
(242 243)
(244 239)
(245 240)
(241 246)
(246 247)
(248 244)
(249 245)
(250 248)
(243 251)
(251 252)
(253 249)
(254 250)
(247 255)
(256 253)
(257 254)
(255 258)
(252 259)
(259 260)
(261 256)
(262 257)
(258 263)
(264 261)
(265 262)
(263 266)
(266 267)
(260 268)
(268 269)
(270 264)
(271 265)
(272 270)
(273 271)
(267 274)
(269 275)
(275 276)
(277 272)
(274 278)
(279 273)
(280 277)
(281 279)
(278 282)
(276 283)
(283 284)
(285 280)
(286 281)
(282 287)
(288 285)
(289 286)
(284 290)
(287 291)
(290 292)
(293 288)
(294 289)
(291 295)
(295 296)
(297 294)
(292 298)
(299 293)
(298 300)
(301 297)
(296 302)
(303 299)
(304 301)
(300 305)
(302 306)
(307 303)
(308 304)
(305 309)
(309 310)
(306 311)
(312 307)
(313 308)
(311 314)
(314 315)
(316 312)
(317 313)
(310 318)
(318 319)
(320 316)
(321 317)
(315 322)
(319 323)
(323 324)
(325 321)
(326 320)
(327 326)
(322 328)
(329 325)
(324 330)
(330 331)
(332 329)
(333 327)
(328 334)
(334 335)
(336 332)
(337 333)
(331 338)
(338 339)
(340 336)
(341 337)
(335 342)
(343 340)
(344 341)
(342 345)
(346 343)
(339 347)
(347 348)
(349 344)
(345 350)
(351 346)
(352 351)
(353 349)
(350 354)
(348 355)
(355 356)
(357 352)
(358 353)
(354 359)
(360 357)
(361 358)
(356 362)
(362 363)
(359 364)
(364 365)
(366 360)
(367 361)
(368 366)
(363 369)
(370 367)
(369 371)
(365 372)
(373 368)
(374 370)
(372 375)
(376 373)
(371 377)
(377 378)
(379 374)
(375 380)
(380 381)
(382 376)
(383 379)
(384 382)
(378 385)
(385 386)
(387 383)
(388 384)
(381 389)
(390 388)
(391 387)
(386 392)
(389 393)
(392 394)
(395 390)
(396 391)
(393 397)
(398 395)
(394 399)
(399 400)
(401 396)
(397 402)
(402 403)
(404 398)
(405 401)
(406 404)
(400 407)
(407 408)
(409 405)
(403 410)
(411 406)
(412 411)
(413 409)
(410 414)
(408 415)
(415 416)
(414 417)
(418 413)
(419 412)
(420 0)
(417 421)
(422 419)
(423 418)
(416 420)
(421 5)
(4 422)
(9 423)
)

// concaveStart mixedStart nonFeatureStart
0 0 0
// internalStart flatStart openStart multipleStart
424 424 424 424
// normals

702
(
(0.821037 -0.570875 0)
(-0 0 -1)
(0.837603 -0.546279 0)
(0.821037 -0.570875 0)
(0 0 1)
(-0.921014 0.389529 0)
(0 0 -1)
(-0.932157 0.362053 0)
(-0.921014 0.389529 0)
(0 0 1)
(0.837603 -0.546279 0)
(-0.932157 0.362053 0)
(0.853405 -0.521249 0)
(-0 0 -1)
(0.868491 -0.495705 0)
(-0 0 -1)
(0.99989 0.0148105 0)
(-0 0 -1)
(0.853405 -0.521249 0)
(0 0 1)
(-0.942486 0.334247 0)
(0 0 1)
(0.99989 0.0148105 7.72556e-21)
(0 0 1)
(-0.942486 0.334247 0)
(0 0 -1)
(0.868491 -0.495705 0)
(0 0 1)
(0.999012 0.0444409 0)
(-0 -0 -1)
(0.997256 0.0740304 0)
(-0.951963 0.306212 0)
(0.999012 0.0444409 0)
(0 0 1)
(-0.951963 0.306212 0)
(0.882796 -0.469757 0)
(0 0 -1)
(0.896321 -0.443405 0)
(-0 0 -1)
(0.882796 -0.469757 0)
(0 0 1)
(0.997256 0.0740304 0)
(-0.960622 0.277859 0)
(0 0 -1)
(-0.968438 0.249254 0)
(0.896321 -0.443405 0)
(0 0 1)
(-0.960622 0.277859 0)
(0 0 1)
(0.994624 0.103555 0)
(-0 -0 -1)
(0.909071 -0.416641 0)
(0.994624 0.103555 0)
(0 0 1)
(0.921014 -0.389529 0)
(-0 0 -1)
(-0.968438 0.249254 0)
(0.909071 -0.416641 0)
(0.991119 0.132974 0)
(0.986747 0.162269 0)
(-0 -0 -1)
(-0.975393 0.220475 0)
(0 0 -1)
(0.991119 0.132974 0)
(0.921014 -0.389529 0)
(0 0 1)
(-0.975393 0.220475 0)
(0 0 1)
(0.932157 -0.362053 0)
(0.942486 -0.334247 0)
(-0 0 -1)
(0.986747 0.162269 0)
(0 0 1)
(0.932157 -0.362053 0)
(-0.981503 0.191448 0)
(0 0 -1)
(-0.981503 0.191448 0)
(0 0 1)
(0.942486 -0.334247 0)
(0 0 1)
(0.981503 0.191448 0)
(0.981503 0.191448 0)
(-0.986747 0.162269 0)
(0 0 -1)
(-0.986747 0.162269 0)
(0 0 1)
(0.951963 -0.306212 0)
(-0 0 -1)
(0.960622 -0.277859 0)
(-0 0 -1)
(0.975393 0.220475 0)
(-0 -0 -1)
(0.951963 -0.306212 0)
(0 0 1)
(0.975393 0.220475 0)
(0 0 1)
(-0.991119 0.132974 0)
(-0.994624 0.103555 0)
(0 0 -1)
(-0.991119 0.132974 0)
(0.960622 -0.277859 0)
(0 0 1)
(0.968438 0.249254 0)
(-0 -0 -1)
(0.968438 0.249254 0)
(0 0 1)
(0.968438 -0.249254 0)
(-0 0 -1)
(-0.994624 0.103555 0)
(0 0 1)
(0.975393 -0.220475 0)
(0.968438 -0.249254 0)
(0 0 1)
(0.960622 0.277859 0)
(-0 -0 -1)
(0.951963 0.306212 0)
(-0.997256 0.0740304 0)
(0 0 -1)
(0.960622 0.277859 0)
(0 0 1)
(-0.997256 0.0740304 0)
(0 0 1)
(0.975393 -0.220475 0)
(-0.999012 0.0444409 0)
(0.951963 0.306212 0)
(0.981503 -0.191448 0)
(-0 0 -1)
(0.986747 -0.162269 0)
(-0 0 -1)
(-0.999012 0.0444409 0)
(0.981503 -0.191448 0)
(0 0 1)
(0.942486 0.334247 0)
(-0 -0 -1)
(-0.99989 0.0148105 0)
(0 0 -1)
(0.942486 0.334247 0)
(0 0 1)
(-0.99989 0.0148105 1.03149e-20)
(0 0 1)
(0.986747 -0.162269 0)
(0 0 1)
(0.932157 0.362053 0)
(0.991119 -0.132974 0)
(-0.99989 -0.0148105 -0)
(0.921014 0.389529 0)
(-0 -0 -1)
(0.994624 -0.103555 0)
(-0 0 -1)
(0.932157 0.362053 0)
(-0.99989 -0.0148105 1.03149e-20)
(0.991119 -0.132974 0)
(-0.999012 -0.0444409 -0)
(0 0 -1)
(0.909071 0.416641 0)
(-0 -0 -1)
(0.921014 0.389529 0)
(0 0 1)
(0.994624 -0.103555 0)
(0 0 1)
(-0.999012 -0.0444409 0)
(0 0 1)
(0.997256 -0.0740304 0)
(-0 0 -1)
(0.999012 -0.0444409 0)
(-0.997256 -0.0740304 -0)
(0 0 -1)
(-0.994624 -0.103555 -0)
(0.909071 0.416641 0)
(0 0 1)
(0.997256 -0.0740304 0)
(0 0 1)
(-0.997256 -0.0740304 0)
(0 0 1)
(0.999012 -0.0444409 0)
(0.896321 0.443405 0)
(-0 -0 -1)
(0.99989 -0.0148105 0)
(-0.994624 -0.103555 -0)
(0.896321 0.443405 0)
(0 0 1)
(0.99989 -0.0148105 7.72556e-21)
(-0.991119 -0.132974 -0)
(0 0 -1)
(0.882796 0.469757 0)
(-0.991119 -0.132974 0)
(0 0 1)
(0.882796 0.469757 0)
(-0.986747 -0.162269 -0)
(0 0 -1)
(-0.986747 -0.162269 0)
(0 0 1)
(0.868491 0.495705 0)
(-0 -0 -1)
(0.868491 0.495705 0)
(0 0 1)
(-0.981503 -0.191448 -0)
(-0.975393 -0.220475 -0)
(0 0 -1)
(-0.981503 -0.191448 0)
(0.853405 0.521249 0)
(-0 -0 -1)
(0.837603 0.546279 0)
(0.853405 0.521249 0)
(0 0 1)
(-0.975393 -0.220475 -0)
(0 0 1)
(0.837603 0.546279 0)
(-0.968438 -0.249254 -0)
(0 0 -1)
(-0.960622 -0.277859 -0)
(-0.968438 -0.249254 0)
(0 0 1)
(0.821037 0.570875 0)
(0 0 1)
(0.821037 0.570875 0)
(-0 -0 -1)
(-0.960622 -0.277859 -0)
(0.803742 0.594978 0)
(0 0 1)
(0.803742 0.594978 0)
(-0 -0 -1)
(0.785789 0.618495 0)
(-0.951963 -0.306212 -0)
(0 0 -1)
(-0.942486 -0.334247 -0)
(0 0 -1)
(-0.951963 -0.306212 0)
(0 0 1)
(0.785789 0.618495 0)
(-0.942486 -0.334247 -0)
(0 0 1)
(0.767092 0.641537 0)
(0 0 1)
(0.767092 0.641537 0)
(-0 -0 -1)
(-0.932157 -0.362053 -0)
(0 0 -1)
(-0.932157 -0.362053 0)
(0 0 1)
(0.747755 0.663974 0)
(0 0 1)
(0.747755 0.663974 0)
(-0 -0 -1)
(0.72775 0.685843 0)
(0 0 -1)
(-0.921014 -0.389529 0)
(0 0 1)
(-0.921014 -0.389529 -0)
(0 0 -1)
(-0.909071 -0.416641 -0)
(0 0 -1)
(0.72775 0.685843 0)
(0 0 1)
(-0.909071 -0.416641 -0)
(0 0 1)
(0.707107 0.707107 0)
(0.707107 0.707107 0)
(-0.896321 -0.443405 0)
(0 0 1)
(-0.896321 -0.443405 -0)
(0 0 -1)
(0.685843 0.72775 0)
(0 0 1)
(0.685843 0.72775 0)
(0 0 -1)
(-0.882796 -0.469757 0)
(-0.882796 -0.469757 -0)
(-0.868491 -0.495705 -0)
(0 0 -1)
(0.663974 0.747755 0)
(0.663974 0.747755 0)
(-0.868491 -0.495705 -0)
(0 0 1)
(0.641537 0.767092 0)
(0 0 -1)
(0.618495 0.785789 0)
(0.641537 0.767092 0)
(0 0 1)
(-0.853405 -0.521249 0)
(0 0 1)
(-0.853405 -0.521249 -0)
(0 0 -1)
(0.618495 0.785789 0)
(-0.837603 -0.546279 0)
(0 0 1)
(-0.837603 -0.546279 -0)
(0 0 -1)
(0.594978 0.803742 0)
(0 0 -1)
(0.594978 0.803742 0)
(0 0 1)
(-0.821037 -0.570875 0)
(-0.821037 -0.570875 -0)
(-0.803742 -0.594978 -0)
(0 0 -1)
(0.570875 0.821037 0)
(0.546279 0.837603 0)
(0 0 -1)
(0.570875 0.821037 0)
(-0.803742 -0.594978 -0)
(0 0 1)
(0.546279 0.837603 0)
(0 0 1)
(-0.785789 -0.618495 -0)
(0 0 -1)
(-0.785789 -0.618495 0)
(0 0 1)
(-0.767092 -0.641537 -0)
(0 0 -1)
(0.521249 0.853405 0)
(0 0 -1)
(0.521249 0.853405 0)
(0 0 1)
(-0.767092 -0.641537 -0)
(0 0 1)
(0.495705 0.868491 0)
(0.495705 0.868491 0)
(-0.747755 -0.663974 -0)
(-0.747755 -0.663974 0)
(0.469757 0.882796 0)
(0 0 -1)
(0.443405 0.896321 0)
(0 0 -1)
(0.469757 0.882796 0)
(0 0 1)
(-0.72775 -0.685843 -0)
(0 0 -1)
(-0.707107 -0.707107 -0)
(0 0 -1)
(-0.72775 -0.685843 0)
(0 0 1)
(0.443405 0.896321 0)
(0 0 1)
(-0.707107 -0.707107 -0)
(0 0 1)
(0.416641 0.909071 0)
(0.416641 0.909071 0)
(-0.685843 -0.72775 -0)
(0 0 -1)
(-0.685843 -0.72775 0)
(0 0 1)
(0.389529 0.921014 0)
(0 0 -1)
(0.389529 0.921014 0)
(0 0 1)
(-0.663974 -0.747755 -0)
(-0.641537 -0.767092 -0)
(0 0 -1)
(-0.663974 -0.747755 0)
(0.362053 0.932157 0)
(0.362053 0.932157 0)
(-0.641537 -0.767092 -0)
(0 0 1)
(0.334247 0.942486 0)
(0 0 -1)
(0.306212 0.951963 0)
(0.334247 0.942486 0)
(0 0 1)
(-0.618495 -0.785789 -0)
(-0.594978 -0.803742 -0)
(0 0 -1)
(-0.618495 -0.785789 0)
(0.306212 0.951963 0)
(-0.594978 -0.803742 -0)
(0 0 1)
(0.277859 0.960622 0)
(0 0 -1)
(-0.570875 -0.821037 -0)
(0 0 -1)
(0.277859 0.960622 0)
(0 0 1)
(-0.546279 -0.837603 -0)
(-0.570875 -0.821037 0)
(0 0 1)
(0.249254 0.968438 0)
(0 0 1)
(0.249254 0.968438 0)
(0 0 -1)
(0.220475 0.975393 0)
(0 0 -1)
(-0.546279 -0.837603 -0)
(0.220475 0.975393 0)
(0 0 1)
(-0.521249 -0.853405 -0)
(0 0 -1)
(-0.495705 -0.868491 -0)
(0 0 -1)
(-0.521249 -0.853405 0)
(0 0 1)
(0.191448 0.981503 0)
(0.191448 0.981503 0)
(-0.495705 -0.868491 -0)
(0 0 1)
(0.162269 0.986747 0)
(0 0 1)
(0.162269 0.986747 0)
(0 0 -1)
(-0.469757 -0.882796 -0)
(-0.443405 -0.896321 -0)
(0 0 -1)
(-0.469757 -0.882796 0)
(0.132974 0.991119 0)
(0.132974 0.991119 0)
(0.103555 0.994624 0)
(0 0 -1)
(-0.443405 -0.896321 -0)
(0 0 1)
(0.103555 0.994624 0)
(0 0 1)
(-0.416641 -0.909071 0)
(-0.416641 -0.909071 -0)
(-0.389529 -0.921014 -0)
(0 0 -1)
(0.0740304 0.997256 0)
(-0.389529 -0.921014 -0)
(0 0 1)
(0.0740304 0.997256 0)
(0.0444409 0.999012 0)
(0 0 1)
(-0.362053 -0.932157 0)
(0.0444409 0.999012 0)
(0 0 -1)
(-0.362053 -0.932157 -0)
(-0.334247 -0.942486 -0)
(0 0 -1)
(0.0148105 0.99989 1.25977e-20)
(-0.334247 -0.942486 -0)
(0 0 1)
(0.0148105 0.99989 0)
(-0.0148105 0.99989 1.25977e-20)
(0 0 1)
(-0.306212 -0.951963 0)
(-0.0148105 0.99989 0)
(0 0 -1)
(-0.0444409 0.999012 0)
(0 0 -1)
(-0.306212 -0.951963 -0)
(-0.277859 -0.960622 -0)
(0 0 -1)
(-0.0444409 0.999012 0)
(0 0 1)
(-0.277859 -0.960622 -0)
(0 0 1)
(-0.0740304 0.997256 0)
(0 0 1)
(-0.249254 -0.968438 0)
(0 0 1)
(-0.0740304 0.997256 0)
(0 0 -1)
(-0.249254 -0.968438 -0)
(0 0 -1)
(-0.220475 -0.975393 -0)
(-0.103555 0.994624 0)
(-0.103555 0.994624 0)
(-0.220475 -0.975393 -0)
(-0.132974 0.991119 0)
(0 0 1)
(-0.191448 -0.981503 0)
(0 0 1)
(-0.132974 0.991119 0)
(0 0 -1)
(-0.191448 -0.981503 -0)
(0 0 -1)
(-0.162269 -0.986747 -0)
(0 0 -1)
(-0.162269 0.986747 0)
(0 0 1)
(-0.162269 -0.986747 -0)
(0 0 1)
(-0.162269 0.986747 0)
(0 0 -1)
(-0.191448 0.981503 0)
(-0.132974 -0.991119 0)
(-0.132974 -0.991119 -0)
(-0.191448 0.981503 0)
(-0.103555 -0.994624 -0)
(0 0 -1)
(-0.220475 0.975393 0)
(0 0 1)
(-0.103555 -0.994624 -0)
(0 0 1)
(-0.220475 0.975393 0)
(0 0 -1)
(-0.249254 0.968438 0)
(-0.0740304 -0.997256 0)
(0 0 1)
(-0.0740304 -0.997256 -0)
(0 0 -1)
(-0.249254 0.968438 0)
(-0.0444409 -0.999012 -0)
(-0.0444409 -0.999012 -0)
(-0.277859 0.960622 0)
(0 0 -1)
(-0.277859 0.960622 0)
(0 0 1)
(-0.0148105 -0.99989 -9.99979e-21)
(0 0 1)
(-0.0148105 -0.99989 -0)
(0 0 -1)
(-0.306212 0.951963 0)
(-0.306212 0.951963 0)
(0.0148105 -0.99989 -9.99979e-21)
(0 0 1)
(0.0148105 -0.99989 0)
(-0 0 -1)
(0.0444409 -0.999012 0)
(-0.334247 0.942486 0)
(0 0 -1)
(-0.334247 0.942486 0)
(0 0 1)
(0.0444409 -0.999012 0)
(-0.362053 0.932157 0)
(0 0 -1)
(-0.389529 0.921014 0)
(-0.362053 0.932157 0)
(0 0 1)
(0.0740304 -0.997256 0)
(0 0 1)
(0.0740304 -0.997256 0)
(-0 0 -1)
(0.103555 -0.994624 0)
(-0 0 -1)
(-0.389529 0.921014 0)
(0.103555 -0.994624 0)
(0 0 1)
(-0.416641 0.909071 0)
(0 0 -1)
(0.132974 -0.991119 0)
(-0 0 -1)
(0.162269 -0.986747 0)
(-0 0 -1)
(0.132974 -0.991119 0)
(0 0 1)
(-0.416641 0.909071 0)
(0 0 1)
(-0.443405 0.896321 0)
(0 0 1)
(-0.443405 0.896321 0)
(0 0 -1)
(0.162269 -0.986747 0)
(0 0 1)
(0.191448 -0.981503 0)
(-0 0 -1)
(0.220475 -0.975393 0)
(0.191448 -0.981503 0)
(0 0 1)
(-0.469757 0.882796 0)
(-0.469757 0.882796 0)
(-0.495705 0.868491 0)
(0 0 -1)
(0.220475 -0.975393 0)
(-0.495705 0.868491 0)
(0 0 1)
(0.249254 -0.968438 0)
(0 0 -1)
(0.277859 -0.960622 0)
(-0 0 -1)
(0.249254 -0.968438 0)
(0 0 1)
(-0.521249 0.853405 0)
(-0.521249 0.853405 0)
(0.277859 -0.960622 0)
(0 0 1)
(-0.546279 0.837603 0)
(0 0 1)
(-0.546279 0.837603 0)
(0 0 -1)
(0.306212 -0.951963 0)
(0 0 1)
(0.306212 -0.951963 0)
(-0 0 -1)
(0.334247 -0.942486 0)
(-0 0 -1)
(-0.570875 0.821037 0)
(0 0 1)
(-0.570875 0.821037 0)
(0 0 -1)
(0.334247 -0.942486 0)
(0 0 1)
(0.362053 -0.932157 0)
(-0.594978 0.803742 0)
(-0.594978 0.803742 0)
(0.362053 -0.932157 0)
(0.389529 -0.921014 0)
(-0 0 -1)
(0.389529 -0.921014 0)
(0 0 1)
(-0.618495 0.785789 0)
(0 0 1)
(-0.618495 0.785789 0)
(0 0 -1)
(0.416641 -0.909071 0)
(0 0 1)
(-0.641537 0.767092 0)
(0.416641 -0.909071 0)
(-0 0 -1)
(0.443405 -0.896321 0)
(-0.641537 0.767092 0)
(-0.663974 0.747755 0)
(0 0 -1)
(0.443405 -0.896321 0)
(-0.663974 0.747755 0)
(0 0 1)
(0.469757 -0.882796 0)
(0 0 1)
(0.469757 -0.882796 0)
(-0 0 -1)
(-0.685843 0.72775 0)
(0 0 1)
(0.495705 -0.868491 0)
(-0.685843 0.72775 0)
(0 0 -1)
(0.495705 -0.868491 0)
(-0.707107 0.707107 0)
(-0.707107 0.707107 0)
(0.521249 -0.853405 0)
(0 0 1)
(0.521249 -0.853405 0)
(-0 0 -1)
(0.546279 -0.837603 0)
(-0.72775 0.685843 0)
(0 0 1)
(-0.72775 0.685843 0)
(0 0 -1)
(-0.747755 0.663974 0)
(0 0 -1)
(0.546279 -0.837603 0)
(-0.747755 0.663974 0)
(0 0 1)
(0.570875 -0.821037 0)
(0 0 1)
(0.570875 -0.821037 0)
(0 0 -1)
(0.594978 -0.803742 0)
(-0 0 -1)
(-0.767092 0.641537 0)
(0.594978 -0.803742 0)
(0 0 1)
(-0.767092 0.641537 0)
(0.618495 -0.785789 0)
(0 0 1)
(-0.785789 0.618495 0)
(0 0 1)
(0.618495 -0.785789 0)
(-0 0 -1)
(-0.785789 0.618495 0)
(0 0 -1)
(0.641537 -0.767092 0)
(0.641537 -0.767092 0)
(-0.803742 0.594978 0)
(0 0 1)
(-0.803742 0.594978 0)
(0 0 -1)
(0.663974 -0.747755 0)
(0 0 1)
(0.663974 -0.747755 0)
(-0 0 -1)
(0.685843 -0.72775 0)
(-0.821037 0.570875 0)
(-0.821037 0.570875 0)
(-0.837603 0.546279 0)
(0 0 -1)
(0.685843 -0.72775 0)
(-0.837603 0.546279 0)
(0 0 1)
(0.707107 -0.707107 0)
(0 0 1)
(0.707107 -0.707107 0)
(-0 0 -1)
(0.72775 -0.685843 0)
(-0 0 -1)
(-0.853405 0.521249 0)
(-0.853405 0.521249 0)
(0.72775 -0.685843 0)
(0 0 1)
(0.747755 -0.663974 0)
(-0.868491 0.495705 0)
(0 0 1)
(-0.868491 0.495705 0)
(0 0 -1)
(0.747755 -0.663974 0)
(0.767092 -0.641537 0)
(-0 0 -1)
(-0.882796 0.469757 0)
(0 0 -1)
(-0.882796 0.469757 0)
(0 0 1)
(0.767092 -0.641537 0)
(0 0 1)
(0.803742 -0.594978 0)
(-0 0 -1)
(-0.896321 0.443405 0)
(0.785789 -0.618495 0)
(0 0 1)
(-0.896321 0.443405 0)
(0.785789 -0.618495 0)
(-0.909071 0.416641 0)
(0 0 -1)
(0.803742 -0.594978 0)
(-0.909071 0.416641 0)
(0 0 1)
)
